/*--------------------------------*- C++ -*----------------------------------*\
  =========                 |
  \\      /  F ield         | OpenFOAM: The Open Source CFD Toolbox
   \\    /   O peration     | Website:  https://openfoam.org
    \\  /    A nd           | Version:  10
     \\/     M anipulation  |
\*---------------------------------------------------------------------------*/
FoamFile
{
    format      ascii;
    class       volScalarField;
    location    "0/negative_cc";
    object      potential;
}
// * * * * * * * * * * * * * * * * * * * * * * * * * * * * * * * * * * * * * //

dimensions      [1 2 -3 0 0 -1 0];

internalField   uniform 0;

boundaryField
{
    #include "$FOAM_CASE/include/setConstraintTypes"

    negative_cc_tab
    {
        type            fixedGradient;
        gradient        uniform 0;
    }
    walls_negative_cc
    {
        type            zeroGradient;
    }
    negative_cc_to_electrode
    {
        type            zeroGradient;
    }
}


// ************************************************************************* //
