/*--------------------------------*- C++ -*----------------------------------*\
  =========                 |
  \\      /  F ield         | OpenFOAM: The Open Source CFD Toolbox
   \\    /   O peration     | Website:  https://openfoam.org
    \\  /    A nd           | Version:  10
     \\/     M anipulation  |
\*---------------------------------------------------------------------------*/
FoamFile
{
    format      ascii;
    class       dictionary;
    location    "system/negative_electrode";
    object      fvSolution;
}
// * * * * * * * * * * * * * * * * * * * * * * * * * * * * * * * * * * * * * //

solvers
{
    "p.*"
    {
        solver           GAMG;
        smoother         symGaussSeidel;
        tolerance        1e-7;
        relTol           0.01;
    }

    "(U|h).*"
    {
        solver           PBiCGStab;
        preconditioner   DILU;
        tolerance        1e-7;
        relTol           0.1;
    }

    "(V|total_sulfate).*"
    {
        solver           PBiCGStab;
        preconditioner   DILU;
        tolerance        1e-7;
        relTol           1e-3;
        minIter          1;
    }

    "electrode_potential"
    {
        solver           GAMG;
        smoother         symGaussSeidel;
        tolerance        1e-7;
        relTol           1e-3;
        minIter          1;
    }
}

PIMPLE
{
    momentumPredictor   yes;
    thermophysics       yes;
}

relaxationFactors
{
    fields
    {
        rho             1.0;
        p               0.7;
    }
    equations
    {
        U               0.3;
        h               0.7;
    }
}

// ************************************************************************* //
