/*--------------------------------*- C++ -*----------------------------------*\
  =========                 |
  \\      /  F ield         | OpenFOAM: The Open Source CFD Toolbox
   \\    /   O peration     | Website:  https://openfoam.org
    \\  /    A nd           | Version:  10
     \\/     M anipulation  |
\*---------------------------------------------------------------------------*/
FoamFile
{
    format      ascii;
    class       volScalarField;
    location    "0/negative_electrode";
    object      cellToRegion;
}
// * * * * * * * * * * * * * * * * * * * * * * * * * * * * * * * * * * * * * //

dimensions      [0 0 0 0 0 0 0];

internalField   uniform 1;

boundaryField
{
    inlet_negative_electrode
    {
        type            zeroGradient;
    }
    outlet_negative_electrode
    {
        type            zeroGradient;
    }
    walls_negative_electrode
    {
        type            zeroGradient;
    }
    negative_electrode_to_cc
    {
        type            zeroGradient;
    }
    negative_electrode_to_separator
    {
        type            zeroGradient;
    }
}


// ************************************************************************* //
