/*--------------------------------*- C++ -*----------------------------------*\
  =========                 |
  \\      /  F ield         | OpenFOAM: The Open Source CFD Toolbox
   \\    /   O peration     | Website:  https://openfoam.org
    \\  /    A nd           | Version:  10
     \\/     M anipulation  |
\*---------------------------------------------------------------------------*/
FoamFile
{
    format      ascii;
    class       volScalarField;
    location    "0/negative_electrode";
    object      V3;
}
// * * * * * * * * * * * * * * * * * * * * * * * * * * * * * * * * * * * * * //

dimensions      [0 -3 0 0 1 0 0];

internalField   uniform 0;

boundaryField
{
    #include "$FOAM_CASE/include/setConstraintTypes"

    inlet_negative_electrode
    {
        type            fixedValue;
        value           uniform 0.2;
    }
    outlet_negative_electrode
    {
        type            zeroGradient;
    }
    walls_negative_electrode
    {
        type            zeroGradient;
    }
    negative_electrode_to_cc
    {
        type            zeroGradient;
    }
    negative_electrode_to_separator
    {
        type            zeroGradient;
    }
}


// ************************************************************************* //
