/*--------------------------------*- C++ -*----------------------------------*\
  =========                 |
  \\      /  F ield         | OpenFOAM: The Open Source CFD Toolbox
   \\    /   O peration     | Website:  https://openfoam.org
    \\  /    A nd           | Version:  10
     \\/     M anipulation  |
\*---------------------------------------------------------------------------*/
FoamFile
{
    format      ascii;
    class       dictionary;
    object      createPatchDict;
}
// * * * * * * * * * * * * * * * * * * * * * * * * * * * * * * * * * * * * * //

// This application/dictionary does the following:
// - Creates new patches from boundary faces, either specified as a set of
//   existing patches or as a faceSet.
// - Orders faces on coupled patches such that they are opposite. This is done
//   for all coupled faces, not just for any patches created.
// - Optional: Synchronises points on coupled patches.
// - Removes any zero-sized non-coupled patches that were not added.

// Optional: Do a synchronisation of coupled points after creation of any
// patches; defaults to false. Note: this does not work with points that are on
// multiple coupled patches with transformations (i.e. cyclics).
pointSync false;

// Optional: Write cyclic matches into .obj format; defaults to false.
writeCyclicMatch false;

// Patches to create
patches
(
    {
        // Name of new patch
        name walls_separator;

        // Dictionary to construct new patch from
        patchInfo
        {
            type wall;
        }

        // How to construct: either from 'patches' or 'set'
        constructFrom patches;

        // If constructFrom = patches : names of patches. Wildcards allowed.
        patches (walls);
    }

    {
        // Name of new patch
        name walls_negative_cc;

        // Dictionary to construct new patch from
        patchInfo
        {
            type wall;
        }

        // How to construct: either from 'patches' or 'set'
        constructFrom set;

        // If constructFrom = set : name of faceSet
        set f_walls_cc_n;
    }

    {
        // Name of new patch
        name walls_positive_cc;

        // Dictionary to construct new patch from
        patchInfo
        {
            type wall;
        }

        // How to construct: either from 'patches' or 'set'
        constructFrom set;

        // If constructFrom = set : name of faceSet
        set f_walls_cc_p;
    }

    {
        // Name of new patch
        name walls_negative_electrode;

        // Dictionary to construct new patch from
        patchInfo
        {
            type wall;
        }

        // How to construct: either from 'patches' or 'set'
        constructFrom set;

        // If constructFrom = set : name of faceSet
        set f_walls_electrode_n;
    }

    {
        // Name of new patch
        name walls_positive_electrode;

        // Dictionary to construct new patch from
        patchInfo
        {
            type wall;
        }

        // How to construct: either from 'patches' or 'set'
        constructFrom set;

        // If constructFrom = set : name of faceSet
        set f_walls_electrode_p;
    }
);

// ************************************************************************* //
